# CIF file generated by openbabel 2.3.90, see http://openbabel.sf.net
data_I
_chemical_name_common ''
_cell_length_a 29.588
_cell_length_b 29.588
_cell_length_c 143.13
_cell_angle_alpha 90
_cell_angle_beta 90
_cell_angle_gamma 120
_space_group_name_H-M_alt 'R -3 c'
_space_group_name_Hall '-R 3 2"c'
loop_
    _symmetry_equiv_pos_as_xyz
    x,y,z
    -y,x-y,z
    -x+y,-x,z
    y,x,1/2-z
    -x,-x+y,1/2-z
    x-y,-y,1/2-z
    -x,-y,-z
    y,-x+y,-z
    x-y,x,-z
    -y,-x,1/2+z
    x,x-y,1/2+z
    -x+y,y,1/2+z
    2/3+x,1/3+y,1/3+z
    2/3-y,1/3+x-y,1/3+z
    2/3-x+y,1/3-x,1/3+z
    2/3+y,1/3+x,5/6-z
    2/3-x,1/3-x+y,5/6-z
    2/3+x-y,1/3-y,5/6-z
    2/3-x,1/3-y,1/3-z
    2/3+y,1/3-x+y,1/3-z
    2/3+x-y,1/3+x,1/3-z
    2/3-y,1/3-x,5/6+z
    2/3+x,1/3+x-y,5/6+z
    2/3-x+y,1/3+y,5/6+z
    1/3+x,2/3+y,2/3+z
    1/3-y,2/3+x-y,2/3+z
    1/3-x+y,2/3-x,2/3+z
    1/3+y,2/3+x,1/6-z
    1/3-x,2/3-x+y,1/6-z
    1/3+x-y,2/3-y,1/6-z
    1/3-x,2/3-y,2/3-z
    1/3+y,2/3-x+y,2/3-z
    1/3+x-y,2/3+x,2/3-z
    1/3-y,2/3-x,1/6+z
    1/3+x,2/3+x-y,1/6+z
    1/3-x+y,2/3+y,1/6+z
loop_
    _atom_site_label
    _atom_site_type_symbol
    _atom_site_fract_x
    _atom_site_fract_y
    _atom_site_fract_z
    _atom_site_occupancy
    Pt0     Pt   0.65381   0.32506   0.70218   1.000
    Au1     Au   0.61818   0.28950   0.68709   1.000
    Au2     Au   0.56943   0.29708   0.70105   1.000
    Au3     Au   0.62268   0.36885   0.71537   1.000
    Au4     Au   0.59312   0.21470   0.70142   1.000
    Au5     Au   0.65507   0.24705   0.68199   1.000
    Au6     Au   0.63630   0.30069   0.65566   1.000
    Au7     Au   0.66097   0.20461   0.69366   1.000
    Au8     Au   0.76467   0.49131   0.71692   1.000
    Au9     Au   0.58690   0.41133   0.71344   1.000
    Au10    Au   0.49097   0.34157   0.71709   1.000
    S11     S    0.56620   0.33642   0.72525   1.000
    S12     S    0.57816   0.12827   0.69759   1.000
    S13     S    0.66985   0.17287   0.67761   1.000
    S14     S    0.48345   0.28170   0.70521   1.000
    S15     S    0.59971   0.25957   0.67020   1.000
    S16     S    0.69198   0.49203   0.70443   1.000
    S17     S    0.70041   0.41661   0.72446   1.000
    P18     P    0.67355   0.33723   0.64096   1.000
    P19     P    0.36967   0.31220   0.71831   1.000
    C20     C    0.55417   0.34208   0.73833   1.000
    C21     C    0.54769   0.38919   0.74141   1.000
    H22     H    0.51355   0.38930   0.73882   1.000
    H23     H    0.58044   0.42364   0.73833   1.000
    C24     C    0.60522   0.35181   0.74296   1.000
    H25     H    0.63797   0.38960   0.74047   1.000
    H26     H    0.61239   0.32000   0.74079   1.000
    C27     C    0.51023   0.29037   0.74281   1.000
    H28     H    0.51653   0.25771   0.74089   1.000
    H29     H    0.47133   0.27723   0.74092   1.000
    C30     C    0.54507   0.39253   0.75229   1.000
    H31     H    0.53957   0.42551   0.75446   1.000
    C32     C    0.59587   0.39986   0.75664   1.000
    H33     H    0.62946   0.43715   0.75417   1.000
    H34     H    0.59462   0.40184   0.76440   1.000
    C35     C    0.60285   0.35365   0.75374   1.000
    H36     H    0.63973   0.35869   0.75663   1.000
    C37     C    0.55681   0.30254   0.75756   1.000
    H38     H    0.56091   0.26852   0.75551   1.000
    H39     H    0.55490   0.30352   0.76528   1.000
    C40     C    0.50623   0.29519   0.75342   1.000
    H41     H    0.47252   0.25867   0.75617   1.000
    C42     C    0.49855   0.34186   0.75606   1.000
    H43     H    0.46139   0.33720   0.75322   1.000
    H44     H    0.49630   0.34426   0.76381   1.000
    C45     C    0.51113   0.07342   0.69849   1.000
    C46     C    0.51106   0.03778   0.69065   1.000
    H47     H    0.53882   0.02390   0.69236   1.000
    H48     H    0.52456   0.06128   0.68413   1.000
    C49     C    0.49816   0.04480   0.70802   1.000
    H50     H    0.49320   0.06701   0.71381   1.000
    H51     H    0.52483   0.03033   0.71010   1.000
    C52     C    0.47104   0.09092   0.69633   1.000
    H53     H    0.48501   0.11717   0.69018   1.000
    H54     H    0.46823   0.11377   0.70225   1.000
    C55     C    0.45722   0.99193   0.68857   1.000
    H56     H    0.47620   0.98521   0.68013   1.000
    C57     C    0.44605   0.96477   0.69774   1.000
    H58     H    0.40701   0.93231   0.69568   1.000
    H59     H    0.47218   0.94938   0.69961   1.000
    C60     C    0.44113   0.99489   0.70585   1.000
    H61     H    0.42041   0.96792   0.71173   1.000
    C62     C    0.38926   0.00805   0.70204   1.000
    H63     H    0.38558   0.02988   0.70800   1.000
    H64     H    0.34937   0.98055   0.69984   1.000
    C65     C    0.41655   0.04436   0.69381   1.000
    H66     H    0.39113   0.05956   0.69149   1.000
    C67     C    0.42130   0.01284   0.68577   1.000
    H68     H    0.43801   0.03826   0.67954   1.000
    H69     H    0.39334   0.99102   0.68355   1.000
    C70     C    0.65839   0.11705   0.66937   1.000
    C71     C    0.66902   0.13463   0.65892   1.000
    H72     H    0.71162   0.16059   0.65768   1.000
    H73     H    0.64924   0.15680   0.65712   1.000
    C74     C    0.68885   0.08680   0.67125   1.000
    H75     H    0.68311   0.07235   0.67856   1.000
    H76     H    0.73156   0.11208   0.67007   1.000
    C77     C    0.60007   0.07805   0.67074   1.000
    H78     H    0.57750   0.09806   0.66956   1.000
    H79     H    0.59434   0.06415   0.67807   1.000
    C80     C    0.64827   0.08635   0.65231   1.000
    H81     H    0.65471   0.09881   0.64489   1.000
    C82     C    0.67677   0.05570   0.65427   1.000
    H83     H    0.71911   0.08033   0.65278   1.000
    H84     H    0.66140   0.02100   0.64956   1.000
    C85     C    0.66828   0.03832   0.66458   1.000
    H86     H    0.68854   0.01580   0.66594   1.000
    C87     C    0.60949   0.00180   0.66617   1.000
    H88     H    0.59134   0.96609   0.65969   1.000
    H89     H    0.60478   0.99565   0.67516   1.000
    C90     C    0.58003   0.03119   0.66414   1.000
    H91     H    0.53765   0.00495   0.66539   1.000
    C92     C    0.58920   0.05031   0.65394   1.000
    H93     H    0.57343   0.01623   0.64913   1.000
    H94     H    0.56824   0.07196   0.65246   1.000
    C95     C    0.41631   0.23038   0.70097   1.000
    C96     C    0.42464   0.19358   0.69448   1.000
    H97     H    0.44560   0.17722   0.69836   1.000
    H98     H    0.44910   0.21610   0.68844   1.000
    C99     C    0.38556   0.25174   0.69538   1.000
    H100    H    0.40866   0.27526   0.68931   1.000
    H101    H    0.37625   0.27592   0.69999   1.000
    C102    C    0.38091   0.19771   0.70924   1.000
    H103    H    0.40056   0.18117   0.71346   1.000
    H104    H    0.37280   0.22281   0.71383   1.000
    C105    C    0.37201   0.14856   0.69091   1.000
    H106    H    0.37942   0.12321   0.68623   1.000
    C107    C    0.34309   0.17092   0.68532   1.000
    H108    H    0.36707   0.19377   0.67925   1.000
    H109    H    0.30571   0.13853   0.68254   1.000
    C110    C    0.33267   0.20645   0.69174   1.000
    H111    H    0.31144   0.22240   0.68774   1.000
    C112    C    0.29854   0.17414   0.70005   1.000
    H113    H    0.28942   0.19860   0.70463   1.000
    H114    H    0.26052   0.14158   0.69750   1.000
    C115    C    0.32800   0.15248   0.70567   1.000
    H116    H    0.30350   0.12980   0.71172   1.000
    C117    C    0.33838   0.11667   0.69932   1.000
    H118    H    0.35898   0.10039   0.70338   1.000
    H119    H    0.30078   0.08336   0.69685   1.000
    C120    C    0.53937   0.20841   0.66409   1.000
    C121    C    0.54944   0.17295   0.65731   1.000
    H122    H    0.57006   0.15578   0.66099   1.000
    H123    H    0.57407   0.19593   0.65133   1.000
    C124    C    0.51059   0.23147   0.65846   1.000
    H125    H    0.53523   0.25543   0.65252   1.000
    H126    H    0.50257   0.25700   0.66301   1.000
    C127    C    0.50331   0.17395   0.67202   1.000
    H128    H    0.49561   0.19859   0.67687   1.000
    H129    H    0.52338   0.15681   0.67600   1.000
    C130    C    0.49691   0.12809   0.65342   1.000
    H131    H    0.50419   0.10262   0.64867   1.000
    C132    C    0.46838   0.15135   0.64795   1.000
    H133    H    0.49236   0.17419   0.64188   1.000
    H134    H    0.43073   0.11937   0.64513   1.000
    C135    C    0.45811   0.18670   0.65452   1.000
    H136    H    0.43755   0.20339   0.65055   1.000
    C137    C    0.42319   0.15354   0.66269   1.000
    H138    H    0.41489   0.17835   0.66739   1.000
    H139    H    0.38515   0.12178   0.66001   1.000
    C140    C    0.45128   0.12981   0.66814   1.000
    H141    H    0.42627   0.10625   0.67404   1.000
    C142    C    0.46213   0.09487   0.66159   1.000
    H143    H    0.42457   0.06228   0.65891   1.000
    H144    H    0.48213   0.07728   0.66546   1.000
    C145    C    0.69384   0.29585   0.63521   1.000
    C146    C    0.72345   0.31053   0.62690   1.000
    H147    H    0.73492   0.34750   0.62354   1.000
    C148    C    0.73911   0.27716   0.62288   1.000
    H149    H    0.76221   0.28825   0.61653   1.000
    C150    C    0.72513   0.22927   0.62707   1.000
    H151    H    0.73728   0.20348   0.62402   1.000
    C152    C    0.69545   0.21462   0.63524   1.000
    H153    H    0.68457   0.17769   0.63847   1.000
    C154    C    0.68005   0.24774   0.63929   1.000
    H155    H    0.65741   0.23594   0.64564   1.000
    C156    C    0.34766   0.34976   0.70385   1.000
    C157    C    0.43986   0.38150   0.69008   1.000
    H158    H    0.45011   0.45135   0.69736   1.000
    C159    C    0.31092   0.37312   0.68735   1.000
    H160    H    0.32962   0.34972   0.68533   1.000
    C161    C    0.25823   0.33656   0.69230   1.000
    H162    H    0.23685   0.30857   0.68661   1.000
    C163    C    0.25579   0.29806   0.69944   1.000
    H164    H    0.21951   0.26165   0.70059   1.000
    C165    C    0.29523   0.30275   0.70424   1.000
    H166    H    0.28797   0.26956   0.70844   1.000
    C167    C    0.42983   0.39650   0.71068   1.000
    C168    C    0.45330   0.45192   0.72817   1.000
    H169    H    0.52093   0.49736   0.73163   1.000
    C170    C    0.50461   0.55012   0.72383   1.000
    H171    H    0.54307   0.57988   0.72655   1.000
    C172    C    0.47472   0.57647   0.72651   1.000
    H173    H    0.48867   0.60339   0.73237   1.000
    C174    C    0.43532   0.57341   0.72156   1.000
    H175    H    0.41986   0.54975   0.71537   1.000
    C176    C    0.37446   0.45507   0.71968   1.000
    H177    H    0.30390   0.41833   0.70770   1.000
    C178    C    0.34478   0.33948   0.73482   1.000
    C179    C    0.45348   0.32024   0.72935   1.000
    H180    H    0.38225   0.26814   0.73431   1.000
    C181    C    0.31709   0.24593   0.74522   1.000
    H182    H    0.34802   0.24075   0.74873   1.000
    C183    C    0.29434   0.27076   0.75134   1.000
    H184    H    0.28099   0.25326   0.75811   1.000
    C185    C    0.29025   0.31334   0.74929   1.000
    H186    H    0.27290   0.32636   0.75449   1.000
    C187    C    0.30590   0.34581   0.74054   1.000
    H188    H    0.32494   0.38830   0.74212   1.000
    C189    C    0.47241   0.43868   0.69283   1.000
    H190    H    0.43348   0.35563   0.69613   1.000
    C191    C    0.35417   0.42417   0.69179   1.000
    H192    H    0.38662   0.44393   0.68673   1.000
    C193    C    0.34303   0.46383   0.69606   1.000
    H194    H    0.35942   0.50218   0.69292   1.000
    C195    C    0.31853   0.45538   0.70418   1.000
    H196    H    0.31545   0.48636   0.70767   1.000
    C197    C    0.35344   0.39666   0.71944   1.000
    H198    H    0.36144   0.46573   0.72627   1.000
    C199    C    0.37411   0.36878   0.71297   1.000
    C200    C    0.45257   0.41799   0.73628   1.000
    C201    C    0.42928   0.41532   0.74586   1.000
    H202    H    0.40269   0.37568   0.74795   1.000
    C203    C    0.43637   0.44986   0.75269   1.000
    H204    H    0.41386   0.43218   0.75894   1.000
    C205    C    0.46958   0.50711   0.75360   1.000
    H206    H    0.47189   0.52515   0.76025   1.000
    C207    C    0.49708   0.53795   0.74680   1.000
    H208    H    0.52358   0.57960   0.74671   1.000
    C209    C    0.49069   0.50472   0.73029   1.000
    H210    H    0.47484   0.44760   0.72227   1.000
    C211    C    0.32289   0.29725   0.72771   1.000
    C212    C    0.41020   0.26429   0.73014   1.000
    H213    H    0.46934   0.24620   0.72216   1.000
    C214    C    0.28207   0.20102   0.73844   1.000
    H215    H    0.30531   0.19321   0.73315   1.000
    C216    C    0.23458   0.20079   0.73431   1.000
    H217    H    0.19880   0.16667   0.73625   1.000
    C218    C    0.22940   0.23457   0.72857   1.000
    H219    H    0.19073   0.22540   0.72650   1.000
    C220    C    0.27047   0.28354   0.72431   1.000
    H221    H    0.26297   0.31662   0.72323   1.000
    C222    C    0.68993   0.54294   0.72494   1.000
    C223    C    0.80167   0.68244   0.73702   1.000
    H224    H    0.85831   0.67407   0.75048   1.000
    H225    H    0.82270   0.71921   0.74086   1.000
    C226    C    0.81745   0.58665   0.73245   1.000
    H227    H    0.79537   0.59273   0.73814   1.000
    H228    H    0.80032   0.54376   0.73212   1.000
    C229    C    0.79314   0.74417   0.72121   1.000
    H230    H    0.76749   0.73354   0.72745   1.000
    H231    H    0.80883   0.71714   0.72059   1.000
    C232    C    0.68118   0.56981   0.71849   1.000
    H233    H    0.65106   0.54929   0.71339   1.000
    C234    C    0.70293   0.62761   0.71943   1.000
    H235    H    0.68244   0.64271   0.71507   1.000
    C236    C    0.69212   0.61142   0.73882   1.000
    H237    H    0.57590   0.56193   0.75393   1.000
    H238    H    0.65763   0.61315   0.74163   1.000
    C239    C    0.72584   0.66893   0.75484   1.000
    H240    H    0.76112   0.70083   0.75818   1.000
    C241    C    0.58785   0.51269   0.74274   1.000
    H242    H    0.61236   0.49563   0.74345   1.000
    H243    H    0.68811   0.54421   0.74948   1.000
    C244    C    0.68083   0.70035   0.73889   1.000
    H245    H    0.64226   0.69324   0.74134   1.000
    H246    H    0.67497   0.67836   0.73219   1.000
    C247    C    0.69994   0.51700   0.73128   1.000
    H248    H    0.67218   0.48982   0.73627   1.000
    C249    C    0.70506   0.56309   0.75621   1.000
    H250    H    0.72366   0.54077   0.75880   1.000
    C251    C    0.59546   0.54050   0.75229   1.000
    H252    H    0.58493   0.51022   0.75772   1.000
    H253    H    0.63359   0.57185   0.75402   1.000
    C254    C    0.74197   0.62332   0.75568   1.000
    H255    H    0.77312   0.62808   0.75094   1.000
    H256    H    0.75901   0.62931   0.76274   1.000
    C257    C    0.60414   0.53657   0.73284   1.000
    H258    H    0.59241   0.50719   0.72706   1.000
    H259    H    0.60408   0.57206   0.73040   1.000
    C260    C    0.80992   0.60767   0.72317   1.000
    H261    H    0.83404   0.64998   0.72225   1.000
    H262    H    0.77449   0.60893   0.72384   1.000
    C263    C    0.72155   0.70594   0.74672   1.000
    H264    H    0.72250   0.73854   0.75063   1.000
